Version 4
SHEET 1 880 680
WIRE 256 176 192 176
WIRE 368 176 352 176
WIRE 544 176 512 176
WIRE 192 224 192 176
WIRE 192 384 192 304
WIRE 336 384 336 224
WIRE 336 384 192 384
WIRE 544 384 544 176
WIRE 544 384 336 384
WIRE 336 416 336 384
FLAG 336 416 0
DATAFLAG 192 208 ""
DATAFLAG 336 272 ""
SYMBOL pmos 256 224 R270
SYMATTR InstName M1
SYMATTR Value FDC5614P
SYMBOL voltage 192 320 R180
WINDOW 123 0 0 Left 0
WINDOW 39 0 0 Left 0
SYMATTR InstName V1
SYMATTR Value 6V
SYMBOL LED 448 192 R270
WINDOW 0 72 32 VTop 2
WINDOW 3 0 32 VBottom 2
SYMATTR InstName D1
SYMBOL res 464 160 R90
WINDOW 0 0 56 VBottom 2
WINDOW 3 32 56 VTop 2
SYMATTR InstName R1
SYMATTR Value 150R
TEXT 272 352 Left 2 !;tran 1s
TEXT 448 304 Left 2 !.op 1s
