Version 4
SHEET 1 880 680
WIRE 240 176 192 176
WIRE 256 176 240 176
WIRE 368 176 352 176
WIRE 416 176 368 176
WIRE 576 176 560 176
WIRE 192 224 192 176
WIRE 336 256 336 224
WIRE 192 384 192 304
WIRE 336 384 336 256
WIRE 336 384 192 384
WIRE 576 384 576 176
WIRE 576 384 336 384
WIRE 336 416 336 384
FLAG 336 416 0
DATAFLAG 192 208 ""
DATAFLAG 432 96 ""
SYMBOL voltage 192 320 R180
WINDOW 123 0 0 Left 0
WINDOW 39 0 0 Left 0
SYMATTR InstName V1
SYMATTR Value 6V
SYMBOL LED 496 192 R270
WINDOW 0 72 32 VTop 2
WINDOW 3 0 32 VBottom 2
SYMATTR InstName D1
SYMBOL res 512 160 R90
WINDOW 0 0 56 VBottom 2
WINDOW 3 32 56 VTop 2
SYMATTR InstName R1
SYMATTR Value 150R
SYMBOL AutoGenerated\\FQPF47P06 304 224 R270
WINDOW 3 122 -4 VBottom 2
SYMATTR InstName U1
TEXT 448 304 Left 2 !.op 10s 6v
TEXT 400 96 Left 2 ;Pmos
TEXT -360 264 Left 2 ;It is impossible for the mosfet to turn\non when the battery polarity is backward.
